CEPRI36.m
function mpc = CEPRI36

% 编号说明：
% 本来 --- 目前
% 1-31 --- 1-31
% 33   --- 33
% 34   --- 34
% 50   --- 32
% 51   --- 35
% 52   --- 36


%% MATPOWER Case Format : Version 2
mpc.version = '2';

%%-----  Power Flow Data  -----%%
%% system MVA base
mpc.baseMVA = 100;

%% bus data
%	bus_i	type	Pd	Qd	Gs	Bs	area	Vm	Va	baseKV	zone	Vmax	Vmin
mpc.bus = [
1	3	0	0	0	0	1	1	0	10.5	1	1.1	0.9
2	1	0	0	0	0	1	1	0	20	1	1.1	0.9
3	2	0	0	0	0	1	1	0	10.5	1	1.1	0.9
4	1	0	0	0	0	2	1	0	15.7	1	1.1	0.9
5	1	0	0	0	0	2	1	0	10.5	1	1.1	0.9
6	2	0	0	0	0	2	1	0	10.5	1	1.1	0.9
7	2	0	0	0	0	3	1	0	10.5	1	1.1	0.9
8	2	376	221	0	0	3	1	0	10.5	1	1.1	0.9
9	1	0	0	0	0	1	1	0	220	1	1.1	0.9
10	1	0	0	0	0	1	1	0	20	1	1.1	0.9
11	1	0	0	0	0	1	1	0	500	1	1.1	0.9
12	1	0	0	0	0	2	1	0	500	1	1.1	0.9
13	1	0	0	0	0	2	1	0	500	1	1.1	0.9
14	1	0	0	0	0	2	1	0	220	1	1.1	0.9
15	1	0	0	0	-100	1	1	0	20	1	1.1	0.9
16	1	500	230	0	0	2	1	0	220	1	1.1	0.9
17	1	0	0	0	0	1	1	0	20	1	1.1	0.9
18	1	430	220	0	0	2	1	0	220	1	1.1	0.9
19	1	86.4	66.2	0	0	2	1	0	220	1	1.1	0.9
20	1	71.9	47.4	0	0	2	1	0	220	1	1.1	0.9
21	1	70	50	0	0	2	1	0	220	1	1.1	0.9
22	1	226.5	169	0	0	1	1	0	220	1	1.1	0.9
23	1	287	144	0	0	1	1	0	220	1	1.1	0.9
24	1	0	0	0	136.65	1	1	0	220	1	1.1	0.9
25	1	0	0	0	136.65	1	1	0	500	1	1.1	0.9
26	1	0	0	0	136.65	2	1	0	500	1	1.1	0.9
27	1	0	0	0	0	2	1	0	500	1	1.1	0.9
28	1	0	0	0	0	2	1	0	500	1	1.1	0.9
29	1	520	10	0	0	2	1	0	220	1	1.1	0.9
30	1	0	0	0	0	3	1	0	220	1	1.1	0.9
31	1	0	0	0	0	3	1	0	220	1	1.1	0.9
32	1	0	0	0	0	2	1	0	220	1	1.1	0.9
33	1	0	0	0	0	3	1	0	220	1	1.1	0.9
34	1	0	0	0	0	2	1	0	220	1	1.1	0.9
35	1	0	0	0	0	2	1	0	10	1	1.1	0.9
36	1	0	0	0	0	2	1	0	10	1	1.1	0.9
];

%% generator data
%	bus	Pg	Qg	Qmax	Qmin	Vg	mBase	status	Pmax	Pmin	Pc1	Pc2	Qc1min	Qc1max	Qc2min	Qc2max	ramp_agc	ramp_10	ramp_30	ramp_q	apf
mpc.gen = [
1	100	0	600	-600	1	100	1	999	0	0	0	0	0	0	0	0	0	0	0	0
3	310	0	600	-600	1	100	1	999	0	0	0	0	0	0	0	0	0	0	0	0
6	0	0	600	-600	1	100	1	999	0	0	0	0	0	0	0	0	0	0	0	0
7	225	0	600	-600	1	100	1	999	0	0	0	0	0	0	0	0	0	0	0	0
8	306	0	600	-600	1	100	1	999	0	0	0	0	0	0	0	0	0	0	0	0
2	600	360	600	-600	1	100	1	999	0	0	0	0	0	0	0	0	0	0	0	0
4	160	70	600	-600	1	100	1	999	0	0	0	0	0	0	0	0	0	0	0	0
5	430	334	600	-600	1	100	1	999	0	0	0	0	0	0	0	0	0	0	0	0
];

%% branch data
%	fbus	tbus	r	x	b	rateA	rateB	rateC	ratio	angle	status	angmin	angmax
mpc.branch = [
11	25	0	0.0001	0	999	999	999	0	0	1	-360	360
12	26	0	0.0001	0	999	999	999	0	0	1	-360	360
12	27	0	0.0001	0	999	999	999	0	0	1	-360	360
13	28	0	0.0001	0	999	999	999	0	0	1	-360	360
14	19	0.0034	0.02	0	999	999	999	0	0	1	-360	360
16	18	0.0033	0.0333	0	999	999	999	0	0	1	-360	360
16	19	0.0578	0.218	0.1887	999	999	999	0	0	1	-360	360
16	20	0.0165	0.0662	0.2353	999	999	999	0	0	1	-360	360
16	21	0.0374	0.178	0.164	999	999	999	0	0	1	-360	360
16	29	0	0.0001	0	999	999	999	0	0	1	-360	360
18	32	0	0.001	0	999	999	999	0	0	1	-360	360
19	21	0.0114	0.037	0	999	999	999	0	0	1	-360	360
19	30	0.0196	0.0854	0.081	999	999	999	0	0	1	-360	360
20	22	0.0214	0.0859	0.3008	999	999	999	0	0	1	-360	360
21	22	0.015	0.0607	0.2198	999	999	999	0	0	1	-360	360
22	23	0.0537	0.19	0.1653	999	999	999	0	0	1	-360	360
23	24	0.0106	0.074	0	999	999	999	0	0	1	-360	360
25	26	0.0033	0.0343	1.8797	999	999	999	0	0	1	-360	360
27	28	0.00245	0.0255	1.395	999	999	999	0	0	1	-360	360
29	34	0	0.0001	0	999	999	999	0	0	1	-360	360
30	31	0	0.0001	0	999	999	999	0	0	1	-360	360
31	33	0	0.0001	0	999	999	999	0	0	1	-360	360
33	34	0.0154	0.158	0.388	999	999	999	0	0	1	-360	360
9	22	0.0559	0.218	0.1954	999	999	999	0	0	1	-360	360
9	23	0.0034	0.0131	0	999	999	999	0	0	1	-360	360
9	24	0.0147	0.104	0	999	999	999	0	0	1	-360	360
1	24	0	0.015	0	999	999	999	0.9302	0	1	-360	360
2	9	0	0.0217	0	999	999	999	0.9302	0	1	-360	360
3	22	0	0.0124	0	999	999	999	0.9302	0	1	-360	360
4	19	0	0.064	0	999	999	999	0.9756	0	1	-360	360
5	18	0	0.0375	0	999	999	999	0.9302	0	1	-360	360
7	30	0	0.0438	0	999	999	999	0.9756	0	1	-360	360
8	31	0	0.0328	0	999	999	999	0.9756	0	1	-360	360
6	17	0	0.0337	0	999	999	999	1	0	1	-360	360
13	17	0	0.01	0	999	999	999	0.9756	0	1	-360	360
16	17	0	0.001	0	999	999	999	0.9737	0	1	-360	360
9	10	0	-0.002	0	999	999	999	1	0	1	-360	360
11	10	0	0.018	0	999	999	999	0.9756	0	1	-360	360
35	10	0	0.001	0	999	999	999	1	0	1	-360	360
12	15	0	0.018	0	999	999	999	0.9756	0	1	-360	360
14	15	0	-0.002	0	999	999	999	1	0	1	-360	360
36	15	0	0.0001	0	999	999	999	1	0	1	-360	360
];

%% loads data
loadbus=find(mpc.bus(:,3));
mpc.loads=mpc.bus(loadbus,[1,3,4]);